&HEAD CHID='case_000002', TITLE='MVP auto-generated case' /
&TIME T_END=152.2 /
&MESH IJK=40,40,12, XB=0.0,10.0, 0.0,10.0, 0.0,3.0 /
&REAC FUEL='PROPANE' /
&SURF ID='BURNER', HRRPUA=891.22, COLOR='RED' /
&OBST XB=6.164,6.664, 7.887,8.387, 0.000,0.100, SURF_ID='BURNER' /
&VENT XB=0.000,0.000, 4.500,5.980, 0.000,2.000, SURF_ID='OPEN' /
&TAIL /
