&HEAD CHID='case_000005', TITLE='MVP auto-generated case' /
&TIME T_END=87.4 /
&MESH IJK=40,40,12, XB=0.0,10.0, 0.0,10.0, 0.0,3.0 /
&REAC FUEL='PROPANE' /
&SURF ID='BURNER', HRRPUA=2031.13, COLOR='RED' /
&OBST XB=7.197,7.697, 6.335,6.835, 0.000,0.100, SURF_ID='BURNER' /
&VENT XB=0.000,0.000, 4.500,5.740, 0.000,2.000, SURF_ID='OPEN' /
&TAIL /
