&HEAD CHID='case_000003', TITLE='MVP auto-generated case' /
&TIME T_END=69.0 /
&MESH IJK=40,40,12, XB=0.0,10.0, 0.0,10.0, 0.0,3.0 /
&REAC FUEL='PROPANE' /
&SURF ID='BURNER', HRRPUA=619.41, COLOR='RED' /
&OBST XB=2.499,2.999, 4.793,5.293, 0.000,0.100, SURF_ID='BURNER' /
&VENT XB=0.000,0.000, 4.500,5.779, 0.000,2.000, SURF_ID='OPEN' /
&TAIL /
