&HEAD CHID='case_000004', TITLE='MVP auto-generated case' /
&TIME T_END=30.4 /
&MESH IJK=40,40,12, XB=0.0,10.0, 0.0,10.0, 0.0,3.0 /
&REAC FUEL='PROPANE' /
&SURF ID='BURNER', HRRPUA=3151.70, COLOR='RED' /
&OBST XB=5.110,5.610, 2.514,3.014, 0.000,0.100, SURF_ID='BURNER' /
&VENT XB=0.000,0.000, 4.500,6.328, 0.000,2.000, SURF_ID='OPEN' /
&TAIL /
