&HEAD CHID='case_000001', TITLE='MVP auto-generated case' /
&TIME T_END=74.2 /
&MESH IJK=40,40,12, XB=0.0,10.0, 0.0,10.0, 0.0,3.0 /
&REAC FUEL='PROPANE' /
&SURF ID='BURNER', HRRPUA=1737.63, COLOR='RED' /
&OBST XB=5.865,6.365, 0.950,1.450, 0.000,0.100, SURF_ID='BURNER' /
&VENT XB=0.000,0.000, 4.500,5.801, 0.000,2.000, SURF_ID='OPEN' /
&TAIL /
